data/E/Lines.dss
New Line.line0 Units=km Length=0.00175 bus1=33.1.2.3 bus2=34.1.2.3 switch=n enabled=y phases=3 Linecode=38_HD_CU_3
New Line.line1 Units=km Length=0.02891 bus1=34.1.2.3 bus2=35.1.2.3 switch=n enabled=y phases=3 Linecode=38_HD_CU_3
New Line.line10 Units=km Length=0.0019399999999999999 bus1=43.1.2.3 bus2=129.1.2.3 switch=n enabled=y phases=3 Linecode=7/4.5_AAC_-_MERCURY_3
New Line.line11 Units=km Length=0.05557 bus1=40.1.2.3 bus2=44.1.2.3 switch=n enabled=y phases=3 Linecode=7/.080_CU_(7/2.0)_3
New Line.line12 Units=km Length=0.00116 bus1=44.1.2.3 bus2=130.1.2.3 switch=n enabled=y phases=3 Linecode=7/.080_CU_(7/2.0)_3
New Line.line13 Units=km Length=0.06089 bus1=37.1.2.3 bus2=45.1.2.3 switch=n enabled=y phases=3 Linecode=7/4.5_AAC_-_MERCURY_3
New Line.line14 Units=km Length=0.001 bus1=45.1.2.3 bus2=46.1.2.3 switch=n enabled=y phases=3 Linecode=7/4.5_AAC_-_MERCURY_3
New Line.line15 Units=km Length=0.021070000000000002 bus1=46.1.2.3 bus2=234.1.2.3 switch=n enabled=y phases=3 Linecode=38_HD_CU_3
New Line.line16 Units=km Length=0.001 bus1=234.1.2.3 bus2=379.1.2.3 switch=n enabled=y phases=3 Linecode=38_HD_CU_3
New Line.line17 Units=km Length=0.052180000000000004 bus1=46.1.2.3 bus2=47.1.2.3 switch=n enabled=y phases=3 Linecode=7/4.5_AAC_-_MERCURY_3
New Line.line18 Units=km Length=0.0019399999999999999 bus1=47.1.2.3 bus2=131.1.2.3 switch=n enabled=y phases=3 Linecode=7/4.5_AAC_-_MERCURY_3
New Line.line19 Units=km Length=0.01783 bus1=38.1.2.3 bus2=48.1.2.3 switch=n enabled=y phases=3 Linecode=unknown_linecode_3
New Line.line2 Units=km Length=0.03361 bus1=35.1.2.3 bus2=36.1.2.3 switch=n enabled=y phases=3 Linecode=38_HD_CU_3
New Line.line20 Units=km Length=0.001 bus1=48.1.2.3 bus2=132.1.2.3 switch=n enabled=y phases=3 Linecode=unknown_linecode_3
New Line.line21 Units=km Length=0.02422 bus1=46.1.2.3 bus2=49.1.2.3 switch=n enabled=y phases=3 Linecode=unknown_linecode_3
New Line.line22 Units=km Length=0.001 bus1=49.1.2.3 bus2=133.1.2.3 switch=n enabled=y phases=3 Linecode=unknown_linecode_3
New Line.line3 Units=km Length=0.001 bus1=36.1.2.3 bus2=37.1.2.3 switch=n enabled=y phases=3 Linecode=38_HD_CU_3
New Line.line4 Units=km Length=0.04555 bus1=37.1.2.3 bus2=38.1.2.3 switch=n enabled=y phases=3 Linecode=7/4.5_AAC_-_MERCURY_3
New Line.line5 Units=km Length=0.027600000000000003 bus1=38.1.2.3 bus2=39.1.2.3 switch=n enabled=y phases=3 Linecode=7/4.5_AAC_-_MERCURY_3
New Line.line6 Units=km Length=0.001 bus1=39.1.2.3 bus2=40.1.2.3 switch=n enabled=y phases=3 Linecode=7/4.5_AAC_-_MERCURY_3
New Line.line7 Units=km Length=0.04265 bus1=40.1.2.3 bus2=41.1.2.3 switch=n enabled=y phases=3 Linecode=7/4.5_AAC_-_MERCURY_3
New Line.line8 Units=km Length=0.046090000000000006 bus1=41.1.2.3 bus2=42.1.2.3 switch=n enabled=y phases=3 Linecode=7/4.5_AAC_-_MERCURY_3
New Line.line9 Units=km Length=0.04523 bus1=42.1.2.3 bus2=43.1.2.3 switch=n enabled=y phases=3 Linecode=7/4.5_AAC_-_MERCURY_3
